/*--------------------------------*- C++ -*----------------------------------*\
  =========                 |				
  \\      /  F ield         | OpenFOAM: The Open Source CFD Toolbox
   \\    /   O peration     | Website:  https://openfoam.org
    \\  /    A nd           | Version:  8                                   	
     \\/     M anipulation  |
\*---------------------------------------------------------------------------*/
FoamFile
{
    version     2.0;
    format      ascii;
    class       dictionary;
    object      blockMeshDict;
}
// * * * * * * * * * * * * * * * * * * * * * * * * * * * * * * * * * * * * * //

convertToMeters 1;	//Ini adalah operasi faktor skala. 

xmin 0;
xmax 1;
ymin 0;
ymax 1;
zmin 0;
zmax 1;

//xcells 20;
//ycells 20;
//zcells 1;

deltax 0.05;	//0.05 - 0.01
deltay 0.05;	//0.05 - 0.01
deltaz 0.05;	//0.05 - 0.01

lx 	#calc "$xmax - $xmin";	//abs($xmax - $xmin)"
ly 	#calc "$ymax - $ymin";
lz 	#calc "$zmax - $zmin";

xcells 	#calc "round(($lx)/($deltax))";
ycells 	#calc "round(($ly)/($deltay))";
zcells 	#calc "round(($lz)/($deltaz))";



vertices
(
//BLOCK 0
    ($xmin  $ymin  $zmin)	//0
    ($xmax  $ymin  $zmin)	//1
    ($xmax  $ymax  $zmin)	//2
    ($xmin  $ymax  $zmin)	//3
    ($xmin  $ymin  $zmax)	//4
    ($xmax  $ymin  $zmax)	//5
    ($xmax  $ymax  $zmax)	//6
    ($xmin  $ymax  $zmax)	//7

/*
    (0 0 0)
    (1 0 0)
    (1 1 0)
    (0 1 0)
    (0 0 0.1)
    (1 0 0.1)
    (1 1 0.1)
    (0 1 0.1)
*/
);

blocks
(
    hex (0 1 2 3 4 5 6 7) ($xcells $ycells $zcells) simpleGrading (1 1 1)
);

edges
(

);

boundary
(
	maxY    //top
    {
        type wall;
        faces
        (
            (3 7 6 2)
        );
    }
	minX    //left
    {
        type wall;
        faces
        (
            (0 4 7 3)
        );
    }
	maxX    //right
    {
        type wall;
        faces
        (
            (2 6 5 1)
        );
    }
	minY    //bottom  
    {
        type wall;
        faces
        (
            (0 1 5 4)
        );
    }
	maxZ    //front
    {
        type wall;
        faces
        (
            (4 5 6 7)
        );
    }
	minZ    //back
    {
        type wall;
        faces
        (
            (0 3 2 1)
        );
    }
);

mergePatchPairs
(

);

// ************************************************************************* //
